Circuit: * C:\Users\RFLab\Dropbox\MPI Group Folder\MPS\Inventor_Parts\MPSV2\Tx Filter\Tx_Filter_MPSv2_v2-WithOpAmp.asc

WARNING: Less than two connections to node VCC.  This node is used by V2.
WARNING: Less than two connections to node MID.  This node is used by V3.
Direct Newton iteration for .op point succeeded.

Date: Fri Apr 02 15:08:28 2021
Total elapsed time: 1.074 seconds.

tnom = 27
temp = 27
method = modified trap
totiter = 200075
traniter = 200072
tranpoints = 100037
accept = 100036
rejected = 1
matrix size = 10
fillins = 0
solver = Normal
Matrix Compiler1:      18 opcodes  0.1/[0.1]/0.1
Matrix Compiler2: off  [0.1]/0.1/0.1

