Circuit: * C:\Users\elima\Dropbox\MPI Group Folder\MPS\Inventor_Parts and MPSv2 all folder\MPSV2\Tx Filter\Tx_Filter_MPSv2_v2.asc


Date: Thu Apr 08 22:45:53 2021
Total elapsed time: 0.149 seconds.

tnom = 27
temp = 27
method = trap
totiter = 0
traniter = 0
tranpoints = 0
accept = 0
rejected = 0
matrix size = 6
fillins = 1
solver = Normal

