Circuit: * C:\Users\elima\OneDrive\Documents\GitHub\MPS\Electrical Hardware\Filter Demo Files\SmallFilterDemo.asc

WARNING: Node N009 is floating.


Date: Tue Apr 26 20:22:08 2022
Total elapsed time: 0.120 seconds.

tnom = 27
temp = 27
method = trap
totiter = 0
traniter = 0
tranpoints = 0
accept = 0
rejected = 0
matrix size = 17
fillins = 1
solver = Normal

