Circuit: * C:\Users\e22ma\OneDrive - Massachusetts Institute of Technology\Documents\GitHub\MPS\Electrical Hardware\LTSpice Files\Drive Filter\Draft3.asc

Ignoring empty pin current: Ix(u1:1)
Ignoring empty pin current: Ix(u1:2)

Date: Mon Aug 03 21:51:28 2020
Total elapsed time: 0.155 seconds.

tnom = 27
temp = 27
method = trap
totiter = 0
traniter = 0
tranpoints = 0
accept = 0
rejected = 0
matrix size = 5
fillins = 1
solver = Normal

