Circuit: * C:\Users\e22ma\OneDrive - Massachusetts Institute of Technology\Documents\GitHub\MPS\Electrical Hardware\LTSpice Files\Drive Filter\MPS_V0_25kHzConfig.asc


Date: Mon Aug 03 18:48:43 2020
Total elapsed time: 0.077 seconds.

tnom = 27
temp = 27
method = trap
totiter = 0
traniter = 0
tranpoints = 0
accept = 0
rejected = 0
matrix size = 6
fillins = 1
solver = Normal

