Circuit: * C:\Users\e22ma\Dropbox\MPI Group Folder\MPS\Spice_Sims\MPS_V0_40kHzConfig.asc


Date: Wed Jul 29 13:12:01 2020
Total elapsed time: 0.064 seconds.

tnom = 27
temp = 27
method = trap
totiter = 0
traniter = 0
tranpoints = 0
accept = 0
rejected = 0
matrix size = 6
fillins = 1
solver = Normal

