Circuit: * C:\Users\elima\OneDrive\Documents\GitHub\MPS\Electrical Hardware\LTSpice Files\Drive Filter\Tx_Filter_MPS_23,8kHz-Measured.asc

WARNING: Node N011 is floating.


Date: Sun Feb 26 15:48:34 2023
Total elapsed time: 0.048 seconds.

tnom = 27
temp = 27
method = trap
totiter = 0
traniter = 0
tranpoints = 0
accept = 0
rejected = 0
matrix size = 21
fillins = 11
solver = Normal

