Circuit: * C:\Users\elima\OneDrive\Documents\GitHub\MPS\Electrical Hardware\LTSpice Files\Drive Filter\Tx_Filter_MPS_23,8kHz-Measured-InclCantileverXfmer.asc

WARNING: Node N003 is floating.


Date: Sun Feb 26 17:05:46 2023
Total elapsed time: 0.025 seconds.

tnom = 27
temp = 27
method = trap
totiter = 0
traniter = 0
tranpoints = 0
accept = 0
rejected = 0
matrix size = 26
fillins = 12
solver = Normal

