Circuit: * C:\Users\RFLab\Documents\GitHub\MPS\Electrical Hardware\LTSpice Files\Anti-Alias_Filt.asc

Ignoring empty pin current: Ix(u1:1)
Ignoring empty pin current: Ix(u1:2)

Date: Thu Jul 01 11:35:06 2021
Total elapsed time: 0.026 seconds.

tnom = 27
temp = 27
method = trap
totiter = 0
traniter = 0
tranpoints = 0
accept = 0
rejected = 0
matrix size = 9
fillins = 0
solver = Normal

