Circuit: * C:\Users\elima\OneDrive\Documents\GitHub\MPS\Electrical Hardware\LTSpice Files\Rx files\Rx Filter.asc

WARNING: Node N012 is floating.

Direct Newton iteration failed to find .op point.  (Use ".option noopiter" to skip.)
Starting Gmin stepping
Increasing initial diagonal Gmin to 100
Increasing initial diagonal Gmin to 1000
Gmin = 1000
vernier = 0.5
Gmin = 186.414
vernier = 0.25
vernier = 0.125
vernier = 0.0625
vernier = 0.03125
Gmin = 179.363
vernier = 0.015625
vernier = 0.0078125
vernier = 0.00390625
vernier = 0.00195313
Gmin = 179.798
vernier = 0.000976563
vernier = 0.000488281
Gmin = 0
Gmin stepping succeeded in finding the operating point.


Date: Wed Dec 07 19:06:52 2022
Total elapsed time: 0.322 seconds.

tnom = 27
temp = 27
method = trap
totiter = 1654
traniter = 0
tranpoints = 0
accept = 0
rejected = 0
matrix size = 137
fillins = 107
solver = Normal
Matrix Compiler1:     468 opcodes
Matrix Compiler2: 11.41 KB object code size  1.8/2.2/[0.6]

